#======================================================================

# CRYSTAL DATA

#----------------------------------------------------------------------

data_VESTA_phase_1


_chemical_name_common                  'CONTCAR\(4)                           '
_cell_length_a                         14.79927
_cell_length_b                         14.82062
_cell_length_c                         15.00000
_cell_angle_alpha                      90
_cell_angle_beta                       90
_cell_angle_gamma                      75.02214
_space_group_name_H-M_alt              'P 1'
_space_group_IT_number                 1

loop_
_space_group_symop_operation_xyz
   'x, y, z'

loop_
   _atom_site_label
   _atom_site_occupancy
   _atom_site_fract_x
   _atom_site_fract_y
   _atom_site_fract_z
   _atom_site_adp_type
   _atom_site_B_iso_or_equiv
   _atom_site_type_symbol
   C1         1.0     0.608231      0.786105      0.340036     Biso  1.000000 C
   C2         1.0     0.509773      0.801433      0.339637     Biso  1.000000 C
   C3         1.0     0.491236      0.709112      0.341421     Biso  1.000000 C
   C4         1.0     0.647353      0.686460      0.341938     Biso  1.000000 C
   C5         1.0     0.873943      0.520052      0.342369     Biso  1.000000 C
   C6         1.0     0.774268      0.559293      0.343051     Biso  1.000000 C
   C7         1.0     0.796884      0.403374      0.343120     Biso  1.000000 C
   C8         1.0     0.889276      0.421786      0.342265     Biso  1.000000 C
   C9         1.0     0.600704      0.207223      0.341399     Biso  1.000000 C
   C10        1.0     0.483873      0.130081      0.339436     Biso  1.000000 C
   C11        1.0     0.582308      0.114786      0.339563     Biso  1.000000 C
   C12        1.0     0.694693      0.309452      0.343111     Biso  1.000000 C
   C13        1.0     0.295035      0.512916      0.342664     Biso  1.000000 C
   C14        1.0     0.202599      0.494456      0.341697     Biso  1.000000 C
   C15        1.0     0.217973      0.396174      0.341502     Biso  1.000000 C
   C16        1.0     0.317692      0.356983      0.342243     Biso  1.000000 C
   C17        1.0     0.944641      0.564433      0.341215     Biso  1.000000 C
   C18        1.0     0.978673      0.364796      0.340965     Biso  1.000000 C
   C19        1.0     0.652613      0.856825      0.338623     Biso  1.000000 C
   C20        1.0     0.452756      0.890762      0.337816     Biso  1.000000 C
   C21        1.0     0.639379      0.025458      0.338244     Biso  1.000000 C
   C22        1.0     0.439587      0.059276      0.337850     Biso  1.000000 C
   C23        1.0     0.397221      0.606957      0.343010     Biso  1.000000 C
   C24        1.0     0.444674      0.229763      0.341268     Biso  1.000000 C
   C25        1.0     0.037615      0.508743      0.340678     Biso  1.000000 C
   C26        1.0     0.054286      0.407457      0.340535     Biso  1.000000 C
   C27        1.0     0.113200      0.551422      0.340927     Biso  1.000000 C
   C28        1.0     0.147278      0.351740      0.340577     Biso  1.000000 C
   C29        1.0     0.596848      0.949738      0.337738     Biso  1.000000 C
   C30        1.0     0.495433      0.966359      0.337421     Biso  1.000000 C
   N1         1.0     0.577901      0.640684      0.342615     Biso  1.000000 N
   N2         1.0     0.738737      0.650617      0.342511     Biso  1.000000 N
   N3         1.0     0.728388      0.489985      0.343522     Biso  1.000000 N
   N4         1.0     0.783859      0.319708      0.343056     Biso  1.000000 N
   N5         1.0     0.621698      0.382445      0.343750     Biso  1.000000 N
   N6         1.0     0.353281      0.265646      0.341649     Biso  1.000000 N
   N7         1.0     0.363537      0.426322      0.342989     Biso  1.000000 N
   N8         1.0     0.308072      0.596582      0.342794     Biso  1.000000 N
   N9         1.0     0.407465      0.696019      0.341854     Biso  1.000000 N
   N10        1.0     0.470209      0.533953      0.343770     Biso  1.000000 N
   N11        1.0     0.684428      0.220389      0.341994     Biso  1.000000 N
   N12        1.0     0.514052      0.275612      0.342261     Biso  1.000000 N
   Fe1        1.0     0.594917      0.507078      0.343751     Biso  1.000000 Fe
   Fe2        1.0     0.497024      0.409351      0.343578     Biso  1.000000 Fe
   H1         1.0     0.929293      0.640518      0.340953     Biso  1.000000 H
   H2         1.0     0.376664      0.904326      0.337122     Biso  1.000000 H
   H3         1.0     0.728812      0.841548      0.338691     Biso  1.000000 H
   H4         1.0     0.363394      0.074411      0.337526     Biso  1.000000 H
   H5         1.0     0.715480      0.011969      0.338176     Biso  1.000000 H
   H6         1.0     0.099545      0.627420      0.340803     Biso  1.000000 H
   H7         1.0     0.162611      0.275650      0.340157     Biso  1.000000 H
   H8         1.0     0.992335      0.288801      0.340570     Biso  1.000000 H
